  Page 1                                    Sat Aug 04 15:49:18 2018

  ******************************************************************
  *                           E P A N E T                          *
  *                   Hydraulic and Water Quality                  *
  *                   Analysis for Pipe Networks                   *
  *                         Version 2.00.12                        *
  ******************************************************************
  
  Analysis begun Sat Aug 04 15:49:18 2018

   
  Node Results at 0:00:00 hrs:
  ----------------------------------------------
                     Demand      Head  Pressure
  Node                  L/s         m         m
  ----------------------------------------------
  J2                  50.00      2.19      2.19
  J3                  10.00      2.19      0.19
  add_node-P1-1       10.16      2.19      1.09
  add_node-P2-1        2.48      2.19      0.59
  R1                 -72.65      2.20      0.00  Reservoir
   
   
  Node Results at 1:00:00 hrs:
  ----------------------------------------------
                     Demand      Head  Pressure
  Node                  L/s         m         m
  ----------------------------------------------
  J2                 100.00      2.17      2.17
  J3                  10.00      2.17      0.17
  add_node-P1-1       10.11      2.18      1.08
  add_node-P2-1        2.44      2.17      0.57
  R1                -122.55      2.20      0.00  Reservoir
   
   
  Node Results at 2:00:00 hrs:
  ----------------------------------------------
                     Demand      Head  Pressure
  Node                  L/s         m         m
  ----------------------------------------------
  J2                 150.00      2.14      2.14
  J3                  10.00      2.14      0.14
  add_node-P1-1       10.04      2.17      1.07
  add_node-P2-1        2.37      2.14      0.54
  R1                -172.41      2.20      0.00  Reservoir
   
   
  Node Results at 3:00:00 hrs:
  ----------------------------------------------
                     Demand      Head  Pressure
  Node                  L/s         m         m
  ----------------------------------------------
  J2                 200.00      2.11      2.11
  J3                   0.00      2.11      0.11
  add_node-P1-1        9.97      2.15      1.05
  add_node-P2-1        2.30      2.11      0.51
  R1                -212.27      2.20      0.00  Reservoir
   
   
  Node Results at 4:00:00 hrs:
  ----------------------------------------------
                     Demand      Head  Pressure
  Node                  L/s         m         m
  ----------------------------------------------
  J2                 250.00      2.06      2.06
  J3                   0.00      2.06      0.06
  add_node-P1-1        9.85      2.13      1.03
  add_node-P2-1        2.20      2.06      0.46
  R1                -262.05      2.20      0.00  Reservoir
   
   
  Node Results at 5:00:00 hrs:
  ----------------------------------------------
                     Demand      Head  Pressure
  Node                  L/s         m         m
  ----------------------------------------------
  J2                 300.00      2.01      2.01
  J3                   0.00      2.01      0.01
  add_node-P1-1        9.72      2.10      1.00
  add_node-P2-1        2.06      2.01      0.41
  R1                -311.78      2.20      0.00  Reservoir
   
   
  Node Results at 6:00:00 hrs:
  ----------------------------------------------
                     Demand      Head  Pressure
  Node                  L/s         m         m
  ----------------------------------------------
  J2                 350.00      1.94      1.94
  J3                   0.00      1.94     -0.06
  add_node-P1-1        9.57      2.07      0.97
  add_node-P2-1        1.90      1.94      0.34
  R1                -361.46      2.20      0.00  Reservoir
   
   
  Node Results at 7:00:00 hrs:
  ----------------------------------------------
                     Demand      Head  Pressure
  Node                  L/s         m         m
  ----------------------------------------------
  J2                 400.00      1.87      1.87
  J3                   0.00      1.87     -0.13
  add_node-P1-1        9.39      2.03      0.93
  add_node-P2-1        1.69      1.87      0.27
  R1                -411.08      2.20      0.00  Reservoir
   
   
  Node Results at 8:00:00 hrs:
  ----------------------------------------------
                     Demand      Head  Pressure
  Node                  L/s         m         m
  ----------------------------------------------
  J2                 550.00      1.62      1.62
  J3                   0.00      1.62     -0.38
  add_node-P1-1        8.72      1.90      0.80
  add_node-P2-1        0.45      1.62      0.02
  R1                -559.17      2.20      0.00  Reservoir
   
   
  Node Results at 9:00:00 hrs:
  ----------------------------------------------
                     Demand      Head  Pressure
  Node                  L/s         m         m
  ----------------------------------------------
  J2                 550.00      1.62      1.62
  J3                   0.00      1.62     -0.38
  add_node-P1-1        8.72      1.90      0.80
  add_node-P2-1        0.43      1.62      0.02
  R1                -559.14      2.20      0.00  Reservoir
   
   
  Node Results at 10:00:00 hrs:
  ----------------------------------------------
                     Demand      Head  Pressure
  Node                  L/s         m         m
  ----------------------------------------------
  J2                 550.00      1.62      1.62
  J3                   0.00      1.62     -0.38
  add_node-P1-1        8.72      1.90      0.80
  add_node-P2-1        0.43      1.62      0.02
  R1                -559.14      2.20      0.00  Reservoir
   
   
  Node Results at 11:00:00 hrs:
  ----------------------------------------------
                     Demand      Head  Pressure
  Node                  L/s         m         m
  ----------------------------------------------
  J2                 600.00      1.52      1.52
  J3                   0.00      1.52     -0.48
  add_node-P1-1        8.45      1.86      0.76
  add_node-P2-1       -0.94      1.52     -0.08
  R1                -607.51      2.20      0.00  Reservoir
   
   
  Node Results at 12:00:00 hrs:
  ----------------------------------------------
                     Demand      Head  Pressure
  Node                  L/s         m         m
  ----------------------------------------------
  J2                  50.00      2.19      2.19
  J3                  10.00      2.19      0.19
  add_node-P1-1       10.16      2.19      1.09
  add_node-P2-1        2.48      2.19      0.59
  R1                 -72.65      2.20      0.00  Reservoir
   